*SPEF "IEEE 1481-1998"
*DESIGN "BlackJack_top"
*DATE "Fri Apr 20 12:38:37 2018"
*VENDOR "Cadence Design Systems, Inc."
*PROGRAM "Encounter"
*VERSION "14.28-s033_1"
*DESIGN_FLOW "COUPLING C" "PIN_CAP NONE" "NAME_SCOPE LOCAL"
*DIVIDER /
*DELIMITER :
*BUS_DELIMITER []
*T_UNIT 1 NS
*C_UNIT 1 PF
*R_UNIT 1 OHM
*L_UNIT 1 HENRY

// MMMC spef file for corner 'rcx_typical'

*NAME_MAP

*1 FE_PHN524_core_I_1_regLoad_2_
*2 FE_PHN523_FE_OFN1_s_start
*3 FE_PHN522_s_score_4_
*4 FE_PHN521_FE_OFN0_s_cardReady
*5 FE_PHN520_n56
*6 FE_PHN519_n62
*7 FE_PHN518_n93
*8 FE_PHN517_n60
*9 FE_PHN516_FE_OFN1_s_start
*10 FE_PHN515_core_I_2_cardReadySync
*11 FE_PHN514_n60
*12 FE_PHN513_FE_OFN5_s_cardValue_0_
*13 FE_PHN512_FE_OFN4_s_cardValue_1_
*14 FE_PHN511_n93
*15 FE_PHN510_s_score_1_
*16 FE_PHN509_s_score_3_
*17 FE_PHN508_s_score_2_
*18 FE_PHN507_n56
*19 FE_PHN506_FE_OFN0_s_cardReady
*20 FE_PHN505_s_score_4_
*21 FE_PHN504_s_score_0_
*22 FE_PHN503_n62
*23 FE_PHN502_FE_OFN1_s_start
*24 FE_PHN501_n93
*25 FE_PHN500_core_I_1_regLoad_3_
*26 FE_PHN499_n60
*27 FE_PHN498_FE_OFN0_s_cardReady
*28 FE_PHN497_s_score_0_
*29 FE_PHN496_s_score_4_
*30 FE_PHN495_n56
*31 FE_PHN494_n62
*32 FE_PHN493_FE_OFN1_s_start
*33 FE_PHN492_s_score_1_
*34 FE_PHN491_FE_OFN5_s_cardValue_0_
*35 FE_PHN490_FE_OFN4_s_cardValue_1_
*36 FE_PHN489_n59
*37 FE_PHN488_s_score_3_
*38 FE_PHN487_FE_OFN2_s_cardValue_3_
*39 FE_PHN486_s_score_2_
*40 FE_PHN485_core_I_2_cardReadySync
*41 FE_PHN484_core_I_1_regLoad_2_
*42 FE_PHN483_s_score_4_
*43 FE_PHN482_FE_OFN3_s_cardValue_2_
*44 FE_PHN481_n62
*45 FE_PHN480_FE_OFN0_s_cardReady
*46 FE_PHN479_n56
*47 FE_PHN478_s_score_1_
*48 FE_PHN477_FE_OFN2_s_cardValue_3_
*49 FE_PHN476_s_score_3_
*50 FE_PHN475_FE_OFN5_s_cardValue_0_
*51 FE_PHN474_s_score_0_
*52 FE_PHN473_s_score_2_
*53 FE_PHN472_FE_OFN4_s_cardValue_1_
*54 FE_PHN471_FE_OFN1_s_start
*55 FE_PHN470_core_I_1_regLoad_4_
*56 FE_PHN469_core_I_1_regLoad_3_
*57 FE_PHN468_core_I_2_cardReadySync
*58 FE_PHN467_s_score_2_
*59 FE_PHN466_FE_OFN3_s_cardValue_2_
*60 FE_PHN465_s_score_0_
*61 FE_PHN464_n62
*62 FE_PHN463_s_score_4_
*63 FE_PHN462_FE_OFN0_s_cardReady
*64 FE_PHN461_n56
*65 FE_PHN460_n59
*66 FE_PHN459_FE_OFN5_s_cardValue_0_
*67 FE_PHN458_FE_OFN4_s_cardValue_1_
*68 FE_PHN457_s_score_3_
*69 FE_PHN456_s_score_1_
*70 FE_PHN455_FE_OFN1_s_start
*71 FE_PHN454_core_I_1_regLoad_4_
*72 FE_PHN453_core_I_1_regLoad_3_
*73 FE_PHN452_core_I_1_regLoad_2_
*74 FE_PHN451_core_I_2_cardReadySync
*75 FE_PHN450_s_score_0_
*76 FE_PHN449_s_score_4_
*77 FE_PHN448_FE_OFN3_s_cardValue_2_
*78 FE_PHN447_n62
*79 FE_PHN446_FE_OFN0_s_cardReady
*80 FE_PHN445_n56
*81 FE_PHN444_FE_OFN2_s_cardValue_3_
*82 FE_PHN443_FE_OFN5_s_cardValue_0_
*83 FE_PHN442_FE_OFN4_s_cardValue_1_
*84 FE_PHN441_s_score_3_
*85 FE_PHN440_s_score_1_
*86 FE_PHN439_s_score_2_
*87 FE_PHN438_core_I_1_regLoad_2_
*88 FE_PHN437_FE_OFN1_s_start
*89 FE_PHN436_core_I_1_regLoad_4_
*90 FE_PHN435_core_I_1_regLoad_3_
*91 FE_PHN434_core_I_2_cardReadySync
*92 FE_PHN433_s_score_4_
*93 FE_PHN432_FE_OFN0_s_cardReady
*94 FE_PHN431_n62
*95 FE_PHN430_FE_OFN3_s_cardValue_2_
*96 FE_PHN429_n56
*97 FE_PHN428_s_score_1_
*98 FE_PHN427_FE_OFN2_s_cardValue_3_
*99 FE_PHN426_FE_OFN4_s_cardValue_1_
*100 FE_PHN425_FE_OFN5_s_cardValue_0_
*101 FE_PHN424_s_score_3_
*102 FE_PHN423_s_score_2_
*103 FE_PHN422_s_score_0_
*104 FE_PHN421_core_I_1_regLoad_2_
*105 FE_PHN420_FE_OFN1_s_start
*106 FE_PHN419_core_I_1_regLoad_4_
*107 FE_PHN418_core_I_1_regLoad_3_
*108 FE_PHN417_core_I_2_cardReadySync
*109 FE_PHN416_s_score_2_
*110 FE_PHN415_s_score_3_
*111 FE_PHN414_s_score_4_
*112 FE_PHN413_n56
*113 FE_PHN412_FE_OFN3_s_cardValue_2_
*114 FE_PHN411_s_score_0_
*115 FE_PHN410_FE_OFN0_s_cardReady
*116 FE_PHN409_n62
*117 FE_PHN408_FE_OFN2_s_cardValue_3_
*118 FE_PHN407_FE_OFN5_s_cardValue_0_
*119 FE_PHN406_FE_OFN4_s_cardValue_1_
*120 FE_PHN405_s_score_1_
*121 FE_PHN404_core_I_1_regLoad_4_
*122 FE_PHN403_FE_OFN1_s_start
*123 FE_PHN402_core_I_1_regLoad_3_
*124 FE_PHN401_core_I_1_regLoad_2_
*125 FE_PHN400_core_I_2_cardReadySync
*126 FE_PHN399_s_score_2_
*127 FE_PHN398_s_score_3_
*128 FE_PHN397_FE_OFN3_s_cardValue_2_
*129 FE_PHN396_FE_OFN0_s_cardReady
*130 FE_PHN395_n62
*131 FE_PHN394_n56
*132 FE_PHN393_FE_OFN4_s_cardValue_1_
*133 FE_PHN392_FE_OFN2_s_cardValue_3_
*134 FE_PHN391_FE_OFN5_s_cardValue_0_
*135 FE_PHN390_s_score_0_
*136 FE_PHN389_s_score_1_
*137 FE_PHN388_n49
*138 FE_PHN387_n53
*139 FE_PHN386_n88
*140 FE_PHN385_core_I_2_cardReadySync
*141 FE_PHN384_core_I_1_regLoad_4_
*142 FE_PHN383_FE_OFN1_s_start
*143 FE_PHN382_core_I_1_regLoad_3_
*144 FE_PHN381_core_I_1_regLoad_2_
*145 FE_PHN380_FE_OFN3_s_cardValue_2_
*146 FE_PHN379_FE_OFN2_s_cardValue_3_
*147 FE_PHN378_FE_OFN4_s_cardValue_1_
*148 FE_PHN377_FE_OFN5_s_cardValue_0_
*149 FE_PHN376_s_score_0_
*150 FE_PHN375_n88
*151 FE_PHN374_FE_OFN0_s_cardReady
*152 FE_PHN373_n51
*153 FE_PHN372_n49
*154 FE_PHN371_n50
*155 FE_PHN370_n64
*156 FE_PHN369_n56
*157 FE_PHN368_n62
*158 FE_PHN367_core_I_2_cardReadySync
*159 FE_PHN366_core_I_1_regLoad_4_
*160 FE_PHN365_n53
*161 FE_PHN364_n54
*162 FE_PHN363_s_score_1_
*163 FE_PHN362_n65
*164 FE_PHN361_n66
*165 FE_PHN360_core_I_1_regLoad_2_
*166 FE_PHN359_n55
*167 FE_PHN358_core_I_1_regLoad_3_
*168 FE_PHN357_FE_OFN1_s_start
*169 FE_PHN356_n88
*170 FE_PHN355_FE_OFN3_s_cardValue_2_
*171 FE_PHN354_FE_OFN5_s_cardValue_0_
*172 FE_PHN353_FE_OFN4_s_cardValue_1_
*173 FE_PHN352_FE_OFN2_s_cardValue_3_
*174 FE_PHN351_n56
*175 FE_PHN350_n62
*176 FE_PHN349_s_score_0_
*177 FE_PHN348_s_score_1_
*178 FE_PHN347_n51
*179 FE_PHN346_n49
*180 FE_PHN345_n50
*181 FE_PHN344_FE_OFN0_s_cardReady
*182 FE_PHN343_n54
*183 FE_PHN342_n64
*184 FE_PHN341_n55
*185 FE_PHN340_n66
*186 FE_PHN339_n65
*187 FE_PHN338_n53
*188 FE_PHN337_core_I_1_regLoad_2_
*189 FE_PHN336_core_I_1_regLoad_3_
*190 FE_PHN335_core_I_1_regLoad_4_
*191 FE_PHN334_FE_OFN1_s_start
*192 FE_PHN333_core_I_1_regAdd_4_
*193 FE_PHN332_core_I_1_regAdd_3_
*194 FE_PHN331_n48
*195 FE_PHN330_n54
*196 FE_PHN329_n50
*197 FE_PHN328_n53
*198 FE_PHN327_n59
*199 FE_PHN326_n49
*200 FE_PHN325_n65
*201 FE_PHN324_FE_OFN0_s_cardReady
*202 FE_PHN323_n58
*203 FE_PHN322_n60
*204 FE_PHN321_n64
*205 FE_PHN320_n55
*206 FE_PHN319_n66
*207 FE_PHN318_n57
*208 FE_PHN317_n61
*209 FE_PHN316_n63
*210 FE_PHN315_n52
*211 FE_PHN314_n51
*212 FE_PHN313_FE_OFN1_s_start
*213 FE_PHN312_core_I_1_regAdd_1_
*214 FE_PHN311_core_I_1_regAdd_0_
*215 FE_PHN310_core_I_1_regLoad_0_
*216 FE_PHN309_core_I_1_regLoad_1_
*217 FE_PHN308_core_I_2_state_3_
*218 FE_PHN307_core_I_2_state_1_
*219 FE_PHN306_core_I_2_state_0_
*220 FE_PHN305_core_I_2_state_2_
*221 FE_PHN304_n59
*222 FE_PHN303_FE_OFN0_s_cardReady
*223 FE_PHN302_n49
*224 FE_PHN301_n52
*225 FE_PHN300_n53
*226 FE_PHN299_n65
*227 FE_PHN298_n64
*228 FE_PHN297_n60
*229 FE_PHN296_n50
*230 FE_PHN295_n58
*231 FE_PHN294_n66
*232 FE_PHN293_n63
*233 FE_PHN292_n61
*234 FE_PHN291_n51
*235 FE_PHN290_n54
*236 FE_PHN289_n48
*237 FE_PHN288_n57
*238 FE_PHN287_n55
*239 FE_PHN286_FE_OFN1_s_start
*240 FE_PHN285_core_I_1_regAdd_1_
*241 FE_PHN284_core_I_1_regLoad_0_
*242 FE_PHN283_core_I_1_regAdd_0_
*243 FE_PHN282_core_I_2_state_1_
*244 FE_PHN281_core_I_1_regLoad_1_
*245 FE_PHN280_core_I_2_state_3_
*246 FE_PHN279_core_I_2_state_2_
*247 FE_PHN278_core_I_2_state_0_
*248 FE_PHN277_FE_OFN0_s_cardReady
*249 FE_PHN276_n51
*250 FE_PHN275_n53
*251 FE_PHN274_n58
*252 FE_PHN273_n60
*253 FE_PHN272_n49
*254 FE_PHN271_n59
*255 FE_PHN270_n64
*256 FE_PHN269_n57
*257 FE_PHN268_n55
*258 FE_PHN267_n61
*259 FE_PHN266_n63
*260 FE_PHN265_n48
*261 FE_PHN264_n50
*262 FE_PHN263_n54
*263 FE_PHN262_n65
*264 FE_PHN261_n66
*265 FE_PHN260_n52
*266 FE_PHN259_FE_OFN1_s_start
*267 FE_PHN258_core_I_1_regAdd_1_
*268 FE_PHN257_core_I_1_regLoad_0_
*269 FE_PHN256_core_I_1_regAdd_0_
*270 FE_PHN255_core_I_1_regLoad_1_
*271 FE_PHN254_core_I_2_state_3_
*272 FE_PHN253_core_I_2_state_2_
*273 FE_PHN252_core_I_2_state_0_
*274 FE_PHN251_core_I_2_state_1_
*275 FE_PHN250_core_I_1_regAdd_2_
*276 FE_PHN249_n48
*277 FE_PHN248_n54
*278 FE_PHN247_FE_OFN0_s_cardReady
*279 FE_PHN246_n65
*280 FE_PHN245_n53
*281 FE_PHN244_n51
*282 FE_PHN243_n60
*283 FE_PHN242_n64
*284 FE_PHN241_n58
*285 FE_PHN240_n61
*286 FE_PHN239_n55
*287 FE_PHN238_n63
*288 FE_PHN237_n52
*289 FE_PHN236_n49
*290 FE_PHN235_n66
*291 FE_PHN234_n50
*292 FE_PHN233_n57
*293 FE_PHN232_n59
*294 FE_PHN231_FE_OFN1_s_start
*295 FE_PHN230_core_I_1_regAdd_1_
*296 FE_PHN229_core_I_1_regAdd_0_
*297 FE_PHN228_core_I_1_regLoad_0_
*298 FE_PHN227_core_I_2_state_3_
*299 FE_PHN226_core_I_2_state_2_
*300 FE_PHN225_core_I_2_state_0_
*301 FE_PHN224_core_I_2_state_1_
*302 FE_PHN223_core_I_1_regLoad_1_
*303 FE_PHN222_core_I_1_regAdd_2_
*304 FE_PHN221_core_I_1_regAdd_3_
*305 FE_PHN220_n60
*306 FE_PHN219_n51
*307 FE_PHN218_n55
*308 FE_PHN217_n58
*309 FE_PHN216_n54
*310 FE_PHN215_FE_OFN0_s_cardReady
*311 FE_PHN214_n65
*312 FE_PHN213_n64
*313 FE_PHN212_n66
*314 FE_PHN211_n63
*315 FE_PHN210_n61
*316 FE_PHN209_n57
*317 FE_PHN208_n48
*318 FE_PHN207_n50
*319 FE_PHN206_n52
*320 FE_PHN205_n49
*321 FE_PHN204_n59
*322 FE_PHN203_n53
*323 FE_PHN202_FE_OFN1_s_start
*324 FE_PHN201_core_I_1_regAdd_1_
*325 FE_PHN200_core_I_1_regLoad_0_
*326 FE_PHN199_core_I_1_regAdd_0_
*327 FE_PHN198_core_I_1_regLoad_1_
*328 FE_PHN197_core_I_2_state_2_
*329 FE_PHN196_core_I_2_state_3_
*330 FE_PHN195_core_I_2_state_1_
*331 FE_PHN194_core_I_2_state_0_
*332 FE_PHN193_core_I_1_regAdd_4_
*333 FE_PHN192_core_I_1_regAdd_3_
*334 FE_PHN191_core_I_1_regAdd_2_
*335 FE_PHN190_n64
*336 FE_PHN189_n49
*337 FE_PHN188_n58
*338 FE_PHN187_n54
*339 FE_PHN186_n51
*340 FE_PHN185_FE_OFN0_s_cardReady
*341 FE_PHN184_n60
*342 FE_PHN183_n59
*343 FE_PHN182_n48
*344 FE_PHN181_n63
*345 FE_PHN180_n55
*346 FE_PHN179_n65
*347 FE_PHN178_n50
*348 FE_PHN177_n61
*349 FE_PHN176_n53
*350 FE_PHN175_n52
*351 FE_PHN174_n66
*352 FE_PHN173_n57
*353 FE_PHN172_FE_OFN1_s_start
*354 FE_PHN171_core_I_1_regAdd_1_
*355 FE_PHN170_core_I_1_regAdd_0_
*356 FE_PHN169_core_I_1_regLoad_0_
*357 FE_PHN168_core_I_2_state_2_
*358 FE_PHN167_core_I_1_regLoad_1_
*359 FE_PHN166_core_I_2_state_1_
*360 FE_PHN165_core_I_2_state_3_
*361 FE_PHN164_core_I_2_state_0_
*362 FE_PHN163_core_I_1_regAdd_4_
*363 FE_PHN162_core_I_1_regAdd_3_
*364 FE_PHN161_core_I_1_regAdd_2_
*365 FE_PHN160_FE_OFN0_s_cardReady
*366 FE_PHN159_n48
*367 FE_PHN158_n49
*368 FE_PHN157_n65
*369 FE_PHN156_n50
*370 FE_PHN155_n51
*371 FE_PHN154_n59
*372 FE_PHN153_n64
*373 FE_PHN152_n53
*374 FE_PHN151_n58
*375 FE_PHN150_n60
*376 FE_PHN149_n61
*377 FE_PHN148_n57
*378 FE_PHN147_n66
*379 FE_PHN146_n55
*380 FE_PHN145_n52
*381 FE_PHN144_n63
*382 FE_PHN143_n54
*383 FE_PHN142_FE_OFN1_s_start
*384 FE_PHN141_core_I_1_regAdd_1_
*385 FE_PHN140_core_I_1_regAdd_0_
*386 FE_PHN139_core_I_2_state_2_
*387 FE_PHN138_core_I_1_regLoad_0_
*388 FE_PHN137_core_I_2_state_0_
*389 FE_PHN136_core_I_2_state_3_
*390 FE_PHN135_core_I_2_state_1_
*391 FE_PHN134_core_I_1_regLoad_1_
*392 FE_PHN133_core_I_1_regAdd_4_
*393 FE_PHN132_core_I_1_regAdd_3_
*394 FE_PHN131_core_I_1_regAdd_2_
*395 FE_PHN130_n60
*396 FE_PHN129_n50
*397 FE_PHN128_n52
*398 FE_PHN127_n51
*399 FE_PHN126_n65
*400 FE_PHN125_n53
*401 FE_PHN124_n58
*402 FE_PHN123_n59
*403 FE_PHN122_n48
*404 FE_PHN121_FE_OFN0_s_cardReady
*405 FE_PHN120_n55
*406 FE_PHN119_n57
*407 FE_PHN118_n61
*408 FE_PHN117_n54
*409 FE_PHN116_n49
*410 FE_PHN115_n66
*411 FE_PHN114_n63
*412 FE_PHN113_n64
*413 FE_PHN112_FE_OFN1_s_start
*414 FE_PHN111_core_I_1_regAdd_1_
*415 FE_PHN110_core_I_2_state_2_
*416 FE_PHN109_core_I_1_regAdd_0_
*417 FE_PHN108_core_I_1_regLoad_0_
*418 FE_PHN107_core_I_2_state_3_
*419 FE_PHN106_core_I_2_state_1_
*420 FE_PHN105_core_I_2_state_0_
*421 FE_PHN104_core_I_1_regLoad_1_
*422 FE_PHN103_core_I_1_regAdd_4_
*423 FE_PHN102_core_I_1_regAdd_2_
*424 FE_PHN101_core_I_1_regAdd_3_
*425 FE_PHN100_FE_OFN0_s_cardReady
*426 FE_PHN99_FE_OFN1_s_start
*427 FE_PHN98_n60
*428 FE_PHN97_n49
*429 FE_PHN96_n64
*430 FE_PHN95_n54
*431 FE_PHN94_n59
*432 FE_PHN93_n58
*433 FE_PHN92_n66
*434 FE_PHN91_n61
*435 FE_PHN90_n63
*436 FE_PHN89_n57
*437 FE_PHN88_n55
*438 FE_PHN87_n52
*439 FE_PHN86_n51
*440 FE_PHN85_n48
*441 FE_PHN84_n50
*442 FE_PHN83_n65
*443 FE_PHN82_n53
*444 FE_PHN81_core_I_1_regAdd_1_
*445 FE_PHN80_core_I_1_regLoad_0_
*446 FE_PHN79_core_I_1_regAdd_0_
*447 FE_PHN78_core_I_1_regLoad_1_
*448 FE_PHN77_core_I_2_state_3_
*449 FE_PHN76_core_I_2_state_1_
*450 FE_PHN75_core_I_2_state_2_
*451 FE_PHN74_core_I_2_state_0_
*452 FE_PHN73_core_I_1_regAdd_4_
*453 FE_PHN72_core_I_1_regAdd_3_
*454 FE_PHN71_core_I_1_regAdd_2_
*455 FE_PHN70_FE_OFN0_s_cardReady
*456 FE_PHN69_n60
*457 FE_PHN68_FE_OFN1_s_start
*458 FE_PHN67_n59
*459 FE_PHN66_n48
*460 FE_PHN65_n51
*461 FE_PHN64_n65
*462 FE_PHN63_n53
*463 FE_PHN62_n49
*464 FE_PHN61_n58
*465 FE_PHN60_n64
*466 FE_PHN59_n61
*467 FE_PHN58_n52
*468 FE_PHN57_n63
*469 FE_PHN56_n66
*470 FE_PHN55_n54
*471 FE_PHN54_n50
*472 FE_PHN53_n57
*473 FE_PHN52_n55
*474 FE_PHN51_core_I_1_regAdd_3_
*475 FE_PHN50_core_I_1_regAdd_0_
*476 FE_PHN49_core_I_1_regLoad_0_
*477 FE_PHN48_core_I_1_regLoad_1_
*478 FE_PHN47_core_I_1_regAdd_1_
*479 FE_PHN46_core_I_1_regAdd_4_
*480 FE_PHN45_core_I_1_regAdd_2_
*481 FE_PHN44_core_I_2_state_1_
*482 FE_PHN43_core_I_2_state_0_
*483 FE_PHN42_core_I_2_state_2_
*484 FE_PHN41_core_I_2_state_3_
*485 FE_PHN40_n66
*486 FE_PHN39_n58
*487 FE_PHN38_FE_OFN0_s_cardReady
*488 FE_PHN37_n64
*489 FE_PHN36_n65
*490 FE_PHN35_n51
*491 FE_PHN34_n50
*492 FE_PHN33_n48
*493 FE_PHN32_n54
*494 FE_PHN31_n53
*495 FE_PHN30_n49
*496 FE_PHN29_n63
*497 FE_PHN28_n52
*498 FE_PHN27_n55
*499 FE_PHN26_n61
*500 FE_PHN25_n59
*501 FE_PHN24_n57
*502 FE_PHN23_FE_OFN1_s_start
*503 FE_PHN22_core_I_1_regAdd_3_
*504 FE_PHN21_core_I_1_regLoad_0_
*505 FE_PHN20_core_I_1_regAdd_0_
*506 FE_PHN19_core_I_1_regLoad_1_
*507 FE_PHN18_core_I_2_state_1_
*508 FE_PHN17_core_I_1_regAdd_4_
*509 FE_PHN16_core_I_1_regAdd_2_
*510 FE_PHN15_core_I_1_regAdd_1_
*511 FE_PHN14_core_I_2_state_0_
*512 FE_PHN13_core_I_2_state_2_
*513 FE_PHN12_core_I_2_state_3_
*514 FE_OFN11_n67
*515 FE_OFN10_s_score_3_
*516 FE_OFN9_s_score_4_
*517 FE_OFN8_s_score_2_
*518 FE_OFN7_s_score_0_
*519 FE_OFN6_s_score_1_
*520 FE_OFN5_s_cardValue_0_
*521 FE_OFN4_s_cardValue_1_
*522 FE_OFN3_s_cardValue_2_
*523 FE_OFN2_s_cardValue_3_
*524 FE_OFN1_s_start
*525 FE_OFN0_s_cardReady
*526 cardReady
*527 cardValue[3]
*528 cardValue[2]
*529 cardValue[1]
*530 cardValue[0]
*531 clk
*532 start
*533 lost
*534 finished
*535 newCard
*536 score[4]
*537 score[3]
*538 score[2]
*539 score[1]
*540 score[0]
*541 s_cardReady
*542 s_clk
*543 s_start
*544 s_lost
*545 core\/I_2\/cardReadySync
*546 n48
*547 n49
*548 n50
*549 n51
*550 n52
*551 n53
*552 n54
*553 n55
*554 n56
*555 n57
*556 n58
*557 n59
*558 n60
*559 n61
*560 n62
*561 n63
*562 n64
*563 n65
*564 n66
*565 n67
*566 n68
*567 n70
*568 n71
*569 n72
*570 n73
*571 n74
*572 n75
*573 n76
*574 n77
*575 n78
*576 n79
*577 n80
*578 n81
*579 n82
*580 n83
*581 n84
*582 n85
*583 n86
*584 n87
*585 n88
*586 n89
*587 n90
*588 n91
*589 n92
*590 n93
*591 n94
*592 n95
*593 n96
*594 n97
*595 n98
*596 n99
*597 n100
*598 n101
*599 n102
*600 n103
*601 n104
*602 n105
*603 n106
*604 n107
*605 n108
*606 n109
*607 n110
*608 n111
*609 n112
*610 n113
*611 n114
*612 n115
*613 n116
*614 n117
*615 n118
*616 n119
*617 n120
*618 n121
*619 n122
*620 n123
*621 n124
*622 n125
*623 n126
*624 n127
*625 n128
*626 n129
*627 n130
*628 n131
*629 n132
*630 n133
*631 s_cardValue[3]
*632 s_cardValue[2]
*633 s_cardValue[1]
*634 s_cardValue[0]
*635 s_score[4]
*636 s_score[3]
*637 s_score[2]
*638 s_score[1]
*639 s_score[0]
*640 core\/I_1\/regAdd[4]
*641 core\/I_1\/regAdd[3]
*642 core\/I_1\/regAdd[2]
*643 core\/I_1\/regAdd[1]
*644 core\/I_1\/regAdd[0]
*645 core\/I_1\/regLoad[4]
*646 core\/I_1\/regLoad[3]
*647 core\/I_1\/regLoad[2]
*648 core\/I_1\/regLoad[1]
*649 core\/I_1\/regLoad[0]
*650 core\/I_2\/state[3]
*651 core\/I_2\/state[2]
*652 core\/I_2\/state[1]
*653 core\/I_2\/state[0]
*654 FE_PHC524_core_I_1_regLoad_2_
*655 FE_PHC523_FE_OFN1_s_start
*656 FE_PHC522_s_score_4_
*657 FE_PHC521_FE_OFN0_s_cardReady
*658 FE_PHC520_n56
*659 FE_PHC519_n62
*660 FE_PHC518_n93
*661 FE_PHC517_n60
*662 FE_PHC516_FE_OFN1_s_start
*663 FE_PHC515_core_I_2_cardReadySync
*664 FE_PHC514_n60
*665 FE_PHC513_FE_OFN5_s_cardValue_0_
*666 FE_PHC512_FE_OFN4_s_cardValue_1_
*667 FE_PHC511_n93
*668 FE_PHC510_s_score_1_
*669 FE_PHC509_s_score_3_
*670 FE_PHC508_s_score_2_
*671 FE_PHC507_n56
*672 FE_PHC506_FE_OFN0_s_cardReady
*673 FE_PHC505_s_score_4_
*674 FE_PHC504_s_score_0_
*675 FE_PHC503_n62
*676 FE_PHC502_FE_OFN1_s_start
*677 FE_PHC501_n93
*678 FE_PHC500_core_I_1_regLoad_3_
*679 FE_PHC499_n60
*680 FE_PHC498_FE_OFN0_s_cardReady
*681 FE_PHC497_s_score_0_
*682 FE_PHC496_s_score_4_
*683 FE_PHC495_n56
*684 FE_PHC494_n62
*685 FE_PHC493_FE_OFN1_s_start
*686 FE_PHC492_s_score_1_
*687 FE_PHC491_FE_OFN5_s_cardValue_0_
*688 FE_PHC490_FE_OFN4_s_cardValue_1_
*689 FE_PHC489_n59
*690 FE_PHC488_s_score_3_
*691 FE_PHC487_FE_OFN2_s_cardValue_3_
*692 FE_PHC486_s_score_2_
*693 FE_PHC485_core_I_2_cardReadySync
*694 FE_PHC484_core_I_1_regLoad_2_
*695 FE_PHC483_s_score_4_
*696 FE_PHC482_FE_OFN3_s_cardValue_2_
*697 FE_PHC481_n62
*698 FE_PHC480_FE_OFN0_s_cardReady
*699 FE_PHC479_n56
*700 FE_PHC478_s_score_1_
*701 FE_PHC477_FE_OFN2_s_cardValue_3_
*702 FE_PHC476_s_score_3_
*703 FE_PHC475_FE_OFN5_s_cardValue_0_
*704 FE_PHC474_s_score_0_
*705 FE_PHC473_s_score_2_
*706 FE_PHC472_FE_OFN4_s_cardValue_1_
*707 FE_PHC471_FE_OFN1_s_start
*708 FE_PHC470_core_I_1_regLoad_4_
*709 FE_PHC469_core_I_1_regLoad_3_
*710 FE_PHC468_core_I_2_cardReadySync
*711 FE_PHC467_s_score_2_
*712 FE_PHC466_FE_OFN3_s_cardValue_2_
*713 FE_PHC465_s_score_0_
*714 FE_PHC464_n62
*715 FE_PHC463_s_score_4_
*716 FE_PHC462_FE_OFN0_s_cardReady
*717 FE_PHC461_n56
*718 FE_PHC460_n59
*719 FE_PHC459_FE_OFN5_s_cardValue_0_
*720 FE_PHC458_FE_OFN4_s_cardValue_1_
*721 FE_PHC457_s_score_3_
*722 FE_PHC456_s_score_1_
*723 FE_PHC455_FE_OFN1_s_start
*724 FE_PHC454_core_I_1_regLoad_4_
*725 FE_PHC453_core_I_1_regLoad_3_
*726 FE_PHC452_core_I_1_regLoad_2_
*727 FE_PHC451_core_I_2_cardReadySync
*728 FE_PHC450_s_score_0_
*729 FE_PHC449_s_score_4_
*730 FE_PHC448_FE_OFN3_s_cardValue_2_
*731 FE_PHC447_n62
*732 FE_PHC446_FE_OFN0_s_cardReady
*733 FE_PHC445_n56
*734 FE_PHC444_FE_OFN2_s_cardValue_3_
*735 FE_PHC443_FE_OFN5_s_cardValue_0_
*736 FE_PHC442_FE_OFN4_s_cardValue_1_
*737 FE_PHC441_s_score_3_
*738 FE_PHC440_s_score_1_
*739 FE_PHC439_s_score_2_
*740 FE_PHC438_core_I_1_regLoad_2_
*741 FE_PHC437_FE_OFN1_s_start
*742 FE_PHC436_core_I_1_regLoad_4_
*743 FE_PHC435_core_I_1_regLoad_3_
*744 FE_PHC434_core_I_2_cardReadySync
*745 FE_PHC433_s_score_4_
*746 FE_PHC432_FE_OFN0_s_cardReady
*747 FE_PHC431_n62
*748 FE_PHC430_FE_OFN3_s_cardValue_2_
*749 FE_PHC429_n56
*750 FE_PHC428_s_score_1_
*751 FE_PHC427_FE_OFN2_s_cardValue_3_
*752 FE_PHC426_FE_OFN4_s_cardValue_1_
*753 FE_PHC425_FE_OFN5_s_cardValue_0_
*754 FE_PHC424_s_score_3_
*755 FE_PHC423_s_score_2_
*756 FE_PHC422_s_score_0_
*757 FE_PHC421_core_I_1_regLoad_2_
*758 FE_PHC420_FE_OFN1_s_start
*759 FE_PHC419_core_I_1_regLoad_4_
*760 FE_PHC418_core_I_1_regLoad_3_
*761 FE_PHC417_core_I_2_cardReadySync
*762 FE_PHC416_s_score_2_
*763 FE_PHC415_s_score_3_
*764 FE_PHC414_s_score_4_
*765 FE_PHC413_n56
*766 FE_PHC412_FE_OFN3_s_cardValue_2_
*767 FE_PHC411_s_score_0_
*768 FE_PHC410_FE_OFN0_s_cardReady
*769 FE_PHC409_n62
*770 FE_PHC408_FE_OFN2_s_cardValue_3_
*771 FE_PHC407_FE_OFN5_s_cardValue_0_
*772 FE_PHC406_FE_OFN4_s_cardValue_1_
*773 FE_PHC405_s_score_1_
*774 FE_PHC404_core_I_1_regLoad_4_
*775 FE_PHC403_FE_OFN1_s_start
*776 FE_PHC402_core_I_1_regLoad_3_
*777 FE_PHC401_core_I_1_regLoad_2_
*778 FE_PHC400_core_I_2_cardReadySync
*779 FE_PHC399_s_score_2_
*780 FE_PHC398_s_score_3_
*781 FE_PHC397_FE_OFN3_s_cardValue_2_
*782 FE_PHC396_FE_OFN0_s_cardReady
*783 FE_PHC395_n62
*784 FE_PHC394_n56
*785 FE_PHC393_FE_OFN4_s_cardValue_1_
*786 FE_PHC392_FE_OFN2_s_cardValue_3_
*787 FE_PHC391_FE_OFN5_s_cardValue_0_
*788 FE_PHC390_s_score_0_
*789 FE_PHC389_s_score_1_
*790 FE_PHC388_n49
*791 FE_PHC387_n53
*792 FE_PHC386_n88
*793 FE_PHC385_core_I_2_cardReadySync
*794 FE_PHC384_core_I_1_regLoad_4_
*795 FE_PHC383_FE_OFN1_s_start
*796 FE_PHC382_core_I_1_regLoad_3_
*797 FE_PHC381_core_I_1_regLoad_2_
*798 FE_PHC380_FE_OFN3_s_cardValue_2_
*799 FE_PHC379_FE_OFN2_s_cardValue_3_
*800 FE_PHC378_FE_OFN4_s_cardValue_1_
*801 FE_PHC377_FE_OFN5_s_cardValue_0_
*802 FE_PHC376_s_score_0_
*803 FE_PHC375_n88
*804 FE_PHC374_FE_OFN0_s_cardReady
*805 FE_PHC373_n51
*806 FE_PHC372_n49
*807 FE_PHC371_n50
*808 FE_PHC370_n64
*809 FE_PHC369_n56
*810 FE_PHC368_n62
*811 FE_PHC367_core_I_2_cardReadySync
*812 FE_PHC366_core_I_1_regLoad_4_
*813 FE_PHC365_n53
*814 FE_PHC364_n54
*815 FE_PHC363_s_score_1_
*816 FE_PHC362_n65
*817 FE_PHC361_n66
*818 FE_PHC360_core_I_1_regLoad_2_
*819 FE_PHC359_n55
*820 FE_PHC358_core_I_1_regLoad_3_
*821 FE_PHC357_FE_OFN1_s_start
*822 FE_PHC356_n88
*823 FE_PHC355_FE_OFN3_s_cardValue_2_
*824 FE_PHC354_FE_OFN5_s_cardValue_0_
*825 FE_PHC353_FE_OFN4_s_cardValue_1_
*826 FE_PHC352_FE_OFN2_s_cardValue_3_
*827 FE_PHC351_n56
*828 FE_PHC350_n62
*829 FE_PHC349_s_score_0_
*830 FE_PHC348_s_score_1_
*831 FE_PHC347_n51
*832 FE_PHC346_n49
*833 FE_PHC345_n50
*834 FE_PHC344_FE_OFN0_s_cardReady
*835 FE_PHC343_n54
*836 FE_PHC342_n64
*837 FE_PHC341_n55
*838 FE_PHC340_n66
*839 FE_PHC339_n65
*840 FE_PHC338_n53
*841 FE_PHC337_core_I_1_regLoad_2_
*842 FE_PHC336_core_I_1_regLoad_3_
*843 FE_PHC335_core_I_1_regLoad_4_
*844 FE_PHC334_FE_OFN1_s_start
*845 FE_PHC333_core_I_1_regAdd_4_
*846 FE_PHC332_core_I_1_regAdd_3_
*847 FE_PHC331_n48
*848 FE_PHC330_n54
*849 FE_PHC329_n50
*850 FE_PHC328_n53
*851 FE_PHC327_n59
*852 FE_PHC326_n49
*853 FE_PHC325_n65
*854 FE_PHC324_FE_OFN0_s_cardReady
*855 FE_PHC323_n58
*856 FE_PHC322_n60
*857 FE_PHC321_n64
*858 FE_PHC320_n55
*859 FE_PHC319_n66
*860 FE_PHC318_n57
*861 FE_PHC317_n61
*862 FE_PHC316_n63
*863 FE_PHC315_n52
*864 FE_PHC314_n51
*865 FE_PHC313_FE_OFN1_s_start
*866 FE_PHC312_core_I_1_regAdd_1_
*867 FE_PHC311_core_I_1_regAdd_0_
*868 FE_PHC310_core_I_1_regLoad_0_
*869 FE_PHC309_core_I_1_regLoad_1_
*870 FE_PHC308_core_I_2_state_3_
*871 FE_PHC307_core_I_2_state_1_
*872 FE_PHC306_core_I_2_state_0_
*873 FE_PHC305_core_I_2_state_2_
*874 FE_PHC304_n59
*875 FE_PHC303_FE_OFN0_s_cardReady
*876 FE_PHC302_n49
*877 FE_PHC301_n52
*878 FE_PHC300_n53
*879 FE_PHC299_n65
*880 FE_PHC298_n64
*881 FE_PHC297_n60
*882 FE_PHC296_n50
*883 FE_PHC295_n58
*884 FE_PHC294_n66
*885 FE_PHC293_n63
*886 FE_PHC292_n61
*887 FE_PHC291_n51
*888 FE_PHC290_n54
*889 FE_PHC289_n48
*890 FE_PHC288_n57
*891 FE_PHC287_n55
*892 FE_PHC286_FE_OFN1_s_start
*893 FE_PHC285_core_I_1_regAdd_1_
*894 FE_PHC284_core_I_1_regLoad_0_
*895 FE_PHC283_core_I_1_regAdd_0_
*896 FE_PHC282_core_I_2_state_1_
*897 FE_PHC281_core_I_1_regLoad_1_
*898 FE_PHC280_core_I_2_state_3_
*899 FE_PHC279_core_I_2_state_2_
*900 FE_PHC278_core_I_2_state_0_
*901 FE_PHC277_FE_OFN0_s_cardReady
*902 FE_PHC276_n51
*903 FE_PHC275_n53
*904 FE_PHC274_n58
*905 FE_PHC273_n60
*906 FE_PHC272_n49
*907 FE_PHC271_n59
*908 FE_PHC270_n64
*909 FE_PHC269_n57
*910 FE_PHC268_n55
*911 FE_PHC267_n61
*912 FE_PHC266_n63
*913 FE_PHC265_n48
*914 FE_PHC264_n50
*915 FE_PHC263_n54
*916 FE_PHC262_n65
*917 FE_PHC261_n66
*918 FE_PHC260_n52
*919 FE_PHC259_FE_OFN1_s_start
*920 FE_PHC258_core_I_1_regAdd_1_
*921 FE_PHC257_core_I_1_regLoad_0_
*922 FE_PHC256_core_I_1_regAdd_0_
*923 FE_PHC255_core_I_1_regLoad_1_
*924 FE_PHC254_core_I_2_state_3_
*925 FE_PHC253_core_I_2_state_2_
*926 FE_PHC252_core_I_2_state_0_
*927 FE_PHC251_core_I_2_state_1_
*928 FE_PHC250_core_I_1_regAdd_2_
*929 FE_PHC249_n48
*930 FE_PHC248_n54
*931 FE_PHC247_FE_OFN0_s_cardReady
*932 FE_PHC246_n65
*933 FE_PHC245_n53
*934 FE_PHC244_n51
*935 FE_PHC243_n60
*936 FE_PHC242_n64
*937 FE_PHC241_n58
*938 FE_PHC240_n61
*939 FE_PHC239_n55
*940 FE_PHC238_n63
*941 FE_PHC237_n52
*942 FE_PHC236_n49
*943 FE_PHC235_n66
*944 FE_PHC234_n50
*945 FE_PHC233_n57
*946 FE_PHC232_n59
*947 FE_PHC231_FE_OFN1_s_start
*948 FE_PHC230_core_I_1_regAdd_1_
*949 FE_PHC229_core_I_1_regAdd_0_
*950 FE_PHC228_core_I_1_regLoad_0_
*951 FE_PHC227_core_I_2_state_3_
*952 FE_PHC226_core_I_2_state_2_
*953 FE_PHC225_core_I_2_state_0_
*954 FE_PHC224_core_I_2_state_1_
*955 FE_PHC223_core_I_1_regLoad_1_
*956 FE_PHC222_core_I_1_regAdd_2_
*957 FE_PHC221_core_I_1_regAdd_3_
*958 FE_PHC220_n60
*959 FE_PHC219_n51
*960 FE_PHC218_n55
*961 FE_PHC217_n58
*962 FE_PHC216_n54
*963 FE_PHC215_FE_OFN0_s_cardReady
*964 FE_PHC214_n65
*965 FE_PHC213_n64
*966 FE_PHC212_n66
*967 FE_PHC211_n63
*968 FE_PHC210_n61
*969 FE_PHC209_n57
*970 FE_PHC208_n48
*971 FE_PHC207_n50
*972 FE_PHC206_n52
*973 FE_PHC205_n49
*974 FE_PHC204_n59
*975 FE_PHC203_n53
*976 FE_PHC202_FE_OFN1_s_start
*977 FE_PHC201_core_I_1_regAdd_1_
*978 FE_PHC200_core_I_1_regLoad_0_
*979 FE_PHC199_core_I_1_regAdd_0_
*980 FE_PHC198_core_I_1_regLoad_1_
*981 FE_PHC197_core_I_2_state_2_
*982 FE_PHC196_core_I_2_state_3_
*983 FE_PHC195_core_I_2_state_1_
*984 FE_PHC194_core_I_2_state_0_
*985 FE_PHC193_core_I_1_regAdd_4_
*986 FE_PHC192_core_I_1_regAdd_3_
*987 FE_PHC191_core_I_1_regAdd_2_
*988 FE_PHC190_n64
*989 FE_PHC189_n49
*990 FE_PHC188_n58
*991 FE_PHC187_n54
*992 FE_PHC186_n51
*993 FE_PHC185_FE_OFN0_s_cardReady
*994 FE_PHC184_n60
*995 FE_PHC183_n59
*996 FE_PHC182_n48
*997 FE_PHC181_n63
*998 FE_PHC180_n55
*999 FE_PHC179_n65
*1000 FE_PHC178_n50
*1001 FE_PHC177_n61
*1002 FE_PHC176_n53
*1003 FE_PHC175_n52
*1004 FE_PHC174_n66
*1005 FE_PHC173_n57
*1006 FE_PHC172_FE_OFN1_s_start
*1007 FE_PHC171_core_I_1_regAdd_1_
*1008 FE_PHC170_core_I_1_regAdd_0_
*1009 FE_PHC169_core_I_1_regLoad_0_
*1010 FE_PHC168_core_I_2_state_2_
*1011 FE_PHC167_core_I_1_regLoad_1_
*1012 FE_PHC166_core_I_2_state_1_
*1013 FE_PHC165_core_I_2_state_3_
*1014 FE_PHC164_core_I_2_state_0_
*1015 FE_PHC163_core_I_1_regAdd_4_
*1016 FE_PHC162_core_I_1_regAdd_3_
*1017 FE_PHC161_core_I_1_regAdd_2_
*1018 FE_PHC160_FE_OFN0_s_cardReady
*1019 FE_PHC159_n48
*1020 FE_PHC158_n49
*1021 FE_PHC157_n65
*1022 FE_PHC156_n50
*1023 FE_PHC155_n51
*1024 FE_PHC154_n59
*1025 FE_PHC153_n64
*1026 FE_PHC152_n53
*1027 FE_PHC151_n58
*1028 FE_PHC150_n60
*1029 FE_PHC149_n61
*1030 FE_PHC148_n57
*1031 FE_PHC147_n66
*1032 FE_PHC146_n55
*1033 FE_PHC145_n52
*1034 FE_PHC144_n63
*1035 FE_PHC143_n54
*1036 FE_PHC142_FE_OFN1_s_start
*1037 FE_PHC141_core_I_1_regAdd_1_
*1038 FE_PHC140_core_I_1_regAdd_0_
*1039 FE_PHC139_core_I_2_state_2_
*1040 FE_PHC138_core_I_1_regLoad_0_
*1041 FE_PHC137_core_I_2_state_0_
*1042 FE_PHC136_core_I_2_state_3_
*1043 FE_PHC135_core_I_2_state_1_
*1044 FE_PHC134_core_I_1_regLoad_1_
*1045 FE_PHC133_core_I_1_regAdd_4_
*1046 FE_PHC132_core_I_1_regAdd_3_
*1047 FE_PHC131_core_I_1_regAdd_2_
*1048 FE_PHC130_n60
*1049 FE_PHC129_n50
*1050 FE_PHC128_n52
*1051 FE_PHC127_n51
*1052 FE_PHC126_n65
*1053 FE_PHC125_n53
*1054 FE_PHC124_n58
*1055 FE_PHC123_n59
*1056 FE_PHC122_n48
*1057 FE_PHC121_FE_OFN0_s_cardReady
*1058 FE_PHC120_n55
*1059 FE_PHC119_n57
*1060 FE_PHC118_n61
*1061 FE_PHC117_n54
*1062 FE_PHC116_n49
*1063 FE_PHC115_n66
*1064 FE_PHC114_n63
*1065 FE_PHC113_n64
*1066 FE_PHC112_FE_OFN1_s_start
*1067 FE_PHC111_core_I_1_regAdd_1_
*1068 FE_PHC110_core_I_2_state_2_
*1069 FE_PHC109_core_I_1_regAdd_0_
*1070 FE_PHC108_core_I_1_regLoad_0_
*1071 FE_PHC107_core_I_2_state_3_
*1072 FE_PHC106_core_I_2_state_1_
*1073 FE_PHC105_core_I_2_state_0_
*1074 FE_PHC104_core_I_1_regLoad_1_
*1075 FE_PHC103_core_I_1_regAdd_4_
*1076 FE_PHC102_core_I_1_regAdd_2_
*1077 FE_PHC101_core_I_1_regAdd_3_
*1078 FE_PHC100_FE_OFN0_s_cardReady
*1079 FE_PHC99_FE_OFN1_s_start
*1080 FE_PHC98_n60
*1081 FE_PHC97_n49
*1082 FE_PHC96_n64
*1083 FE_PHC95_n54
*1084 FE_PHC94_n59
*1085 FE_PHC93_n58
*1086 FE_PHC92_n66
*1087 FE_PHC91_n61
*1088 FE_PHC90_n63
*1089 FE_PHC89_n57
*1090 FE_PHC88_n55
*1091 FE_PHC87_n52
*1092 FE_PHC86_n51
*1093 FE_PHC85_n48
*1094 FE_PHC84_n50
*1095 FE_PHC83_n65
*1096 FE_PHC82_n53
*1097 FE_PHC81_core_I_1_regAdd_1_
*1098 FE_PHC80_core_I_1_regLoad_0_
*1099 FE_PHC79_core_I_1_regAdd_0_
*1100 FE_PHC78_core_I_1_regLoad_1_
*1101 FE_PHC77_core_I_2_state_3_
*1102 FE_PHC76_core_I_2_state_1_
*1103 FE_PHC75_core_I_2_state_2_
*1104 FE_PHC74_core_I_2_state_0_
*1105 FE_PHC73_core_I_1_regAdd_4_
*1106 FE_PHC72_core_I_1_regAdd_3_
*1107 FE_PHC71_core_I_1_regAdd_2_
*1108 FE_PHC70_FE_OFN0_s_cardReady
*1109 FE_PHC69_n60
*1110 FE_PHC68_FE_OFN1_s_start
*1111 FE_PHC67_n59
*1112 FE_PHC66_n48
*1113 FE_PHC65_n51
*1114 FE_PHC64_n65
*1115 FE_PHC63_n53
*1116 FE_PHC62_n49
*1117 FE_PHC61_n58
*1118 FE_PHC60_n64
*1119 FE_PHC59_n61
*1120 FE_PHC58_n52
*1121 FE_PHC57_n63
*1122 FE_PHC56_n66
*1123 FE_PHC55_n54
*1124 FE_PHC54_n50
*1125 FE_PHC53_n57
*1126 FE_PHC52_n55
*1127 FE_PHC51_core_I_1_regAdd_3_
*1128 FE_PHC50_core_I_1_regAdd_0_
*1129 FE_PHC49_core_I_1_regLoad_0_
*1130 FE_PHC48_core_I_1_regLoad_1_
*1131 FE_PHC47_core_I_1_regAdd_1_
*1132 FE_PHC46_core_I_1_regAdd_4_
*1133 FE_PHC45_core_I_1_regAdd_2_
*1134 FE_PHC44_core_I_2_state_1_
*1135 FE_PHC43_core_I_2_state_0_
*1136 FE_PHC42_core_I_2_state_2_
*1137 FE_PHC41_core_I_2_state_3_
*1138 FE_PHC40_n66
*1139 FE_PHC39_n58
*1140 FE_PHC38_FE_OFN0_s_cardReady
*1141 FE_PHC37_n64
*1142 FE_PHC36_n65
*1143 FE_PHC35_n51
*1144 FE_PHC34_n50
*1145 FE_PHC33_n48
*1146 FE_PHC32_n54
*1147 FE_PHC31_n53
*1148 FE_PHC30_n49
*1149 FE_PHC29_n63
*1150 FE_PHC28_n52
*1151 FE_PHC27_n55
*1152 FE_PHC26_n61
*1153 FE_PHC25_n59
*1154 FE_PHC24_n57
*1155 FE_PHC23_FE_OFN1_s_start
*1156 FE_PHC22_core_I_1_regAdd_3_
*1157 FE_PHC21_core_I_1_regLoad_0_
*1158 FE_PHC20_core_I_1_regAdd_0_
*1159 FE_PHC19_core_I_1_regLoad_1_
*1160 FE_PHC18_core_I_2_state_1_
*1161 FE_PHC17_core_I_1_regAdd_4_
*1162 FE_PHC16_core_I_1_regAdd_2_
*1163 FE_PHC15_core_I_1_regAdd_1_
*1164 FE_PHC14_core_I_2_state_0_
*1165 FE_PHC13_core_I_2_state_2_
*1166 FE_PHC12_core_I_2_state_3_
*1167 FE_OFC11_n67
*1168 FE_OFC10_s_score_3_
*1169 FE_OFC9_s_score_4_
*1170 FE_OFC8_s_score_2_
*1171 FE_OFC7_s_score_0_
*1172 FE_OFC6_s_score_1_
*1173 FE_OFC5_s_cardValue_0_
*1174 FE_OFC4_s_cardValue_1_
*1175 FE_OFC3_s_cardValue_2_
*1176 FE_OFC2_s_cardValue_3_
*1177 FE_OFC1_s_start
*1178 FE_OFC0_s_cardReady
*1179 IO_LOST
*1180 IO_FINISHED
*1181 IO_NEWCARD
*1182 IO_SCORE_0
*1183 IO_SCORE_1
*1184 IO_SCORE_2
*1185 IO_SCORE_3
*1186 IO_SCORE_4
*1187 IO_CARDREADY
*1188 IO_START
*1189 IO_CARDVALUE_0
*1190 IO_CARDVALUE_1